/*---------------------------------------------------------------------------*\
  =========                 |
  \\      /  F ield         | OpenFOAM: The Open Source CFD Toolbox
   \\    /   O peration     | Website:  https://openfoam.org
    \\  /    A nd           | Version:  7
     \\/     M anipulation  |
\*---------------------------------------------------------------------------*/
Build  : 7-1ff648926f77
Exec   : potentialFoam
Date   : May 03 2021
Time   : 15:06:07
Host   : "heater"
PID    : 23079
I/O    : uncollated
Case   : /home/david/OpenFOAM/david-7/run/airfoil-tests/base-case/curiosityFluidsAirfoilMesher/airfoil-test
nProcs : 1
sigFpe : Enabling floating point exception trapping (FOAM_SIGFPE).
fileModificationChecking : Monitoring run-time modified files using timeStampMaster (fileModificationSkew 10)
allowSystemOperations : Allowing user-supplied system call operations

// * * * * * * * * * * * * * * * * * * * * * * * * * * * * * * * * * * * * * //
Create time

Create mesh for time = 0

Reading velocity field U

Constructing pressure field p

Constructing velocity potential field Phi

No MRF models present


Calculating potential flow
GAMG:  Solving for Phi, Initial residual = 1, Final residual = 0.02417504392, No Iterations 100
GAMG:  Solving for Phi, Initial residual = 0.01737172336, Final residual = 0.00889683788, No Iterations 100
GAMG:  Solving for Phi, Initial residual = 0.01013604287, Final residual = 0.007148682859, No Iterations 100
GAMG:  Solving for Phi, Initial residual = 0.007486193945, Final residual = 0.006011624067, No Iterations 100
GAMG:  Solving for Phi, Initial residual = 0.006229914675, Final residual = 0.005324315067, No Iterations 100
GAMG:  Solving for Phi, Initial residual = 0.005445703835, Final residual = 0.004871900684, No Iterations 100
GAMG:  Solving for Phi, Initial residual = 0.004953464661, Final residual = 0.004524172109, No Iterations 100
GAMG:  Solving for Phi, Initial residual = 0.0045743835, Final residual = 0.004230159051, No Iterations 100
GAMG:  Solving for Phi, Initial residual = 0.004265212162, Final residual = 0.003974522929, No Iterations 100
GAMG:  Solving for Phi, Initial residual = 0.003998598991, Final residual = 0.0037522169, No Iterations 100
GAMG:  Solving for Phi, Initial residual = 0.003770004246, Final residual = 0.003557500681, No Iterations 100
Continuity error = 0.04359887704
Interpolated velocity error = 0.0002866849392
ExecutionTime = 48.03 s  ClockTime = 48 s

End

